30

    C           -0.543810888004     1.272326272576     0.258901689608
    C            0.166377719315     0.079612151409    -0.114286001496
    C           -0.121244786358    -1.133466060030     0.608582405652
    C           -1.057646619925    -1.144765373133     1.617592224623
    C           -1.772336945048     0.045956154995     1.952401137306
    C           -1.502531744678     1.259956280120     1.254581526309
    C            1.104088978262     0.103171945426    -1.151513387908
    C            1.624615448721     1.327087000700    -1.840718804263
    C            3.065277154551     0.912521299432    -2.201728061984
    C            2.873221228581    -0.534254397397    -2.672050987322
    C            1.793697550452    -1.112534177613    -1.725188588562
    C            0.812335515438    -2.058343753060    -2.448354675821
    H            2.273822726982    -1.659601070644    -0.891415549546
    H            3.798078349625    -1.128564670655    -2.659859242160
    H            2.488081568805    -0.538064014188    -3.706437188564
    H            3.698752604728     0.951979899424    -1.299711209672
    H            3.511095094665     1.569738347492    -2.961729847548
    H            1.532247934141     2.256936270045    -1.263892843758
    H            1.045351168528     1.444683191948    -2.780785679482
    H           -0.349453504190     2.205523738363    -0.274772838612
    H           -2.037320920078     2.178407421998     1.499358585641
    O           -2.650172398153    -0.084588929118     2.925895803142
    H           -1.277349867423    -2.048544538259     2.190571271988
    H            0.431020962003    -2.046975853456     0.381407682648
    H            1.384571240938    -2.865243617579    -2.931271431910
    H            0.266669652379    -1.511206723936    -3.233311745171
    H            0.078792760913    -2.511780489680    -1.766733352969
    C           -3.414893525175     1.070351190952     3.344268154841
    H           -4.059262689772     0.704098519172     4.149488470335
    H           -2.742860399154     1.854154265837     3.723014676053 
