31

 C     1.263455    -0.830095     0.301389
 C     0.000000    -0.000000     0.000000
 C    -0.828100    -0.881905    -0.953535
 C    -0.472970    -0.770684    -2.420947
 C     0.155456    -1.870251    -1.587045
 C     1.542853    -1.604898    -1.002898
 C    -2.201676    -1.295126    -0.539087
 C    -2.370892    -2.203472     0.527010
 C    -3.653159    -2.574239     0.958335
 C    -4.789773    -2.041204     0.326378
 C    -4.633753    -1.135841    -0.735316
 C    -3.347936    -0.764513    -1.161542
 H    -3.226532    -0.052607    -1.984346
 H    -5.514519    -0.716182    -1.231196
 O    -6.052300    -2.408727     0.745131
 H    -3.767281    -3.284400     1.783195
 H    -1.484800    -2.628883     1.010935
 H    -1.233840    -1.070073    -3.147300
 H     0.168346     0.061371    -2.730757
 H     1.028388    -1.554856     1.101091
 H     2.117444    -0.220673     0.642578
 H     2.093689    -2.541089    -0.819436
 H     2.151583    -0.997241    -1.696315
 H    -0.168663    -2.896966    -1.781531
 H    -0.571469     0.240628     0.910333
 H     0.264247     0.955866    -0.487476
 H     0.707946    -1.772894    -2.264113
 C    -7.012101    -1.749780    -0.032410
 H    -8.008399    -2.039804     0.298040
 H    -6.892044    -0.673091     0.078258
 H    -6.882449    -2.023880    -1.078346
