31

    C            3.162256554847     0.607229981412     0.974917465408
    C            2.130287144111     1.717696264926     0.431176162179
    C            1.391442331140     0.918054259257    -0.528975346097
    C            2.044306345427     0.576541557592    -1.779709636329
    C            3.074924736522    -0.541848414192    -1.252825082600
    C            3.980870014772     0.047613805714    -0.180375554375
    C            0.111854975520     0.299422584189    -0.159416098940
    C           -0.013214887055    -0.950256129676     0.489398171429
    C           -1.282658808350    -1.443598763323     0.794141167830
    C           -2.447119691232    -0.715448664460     0.465303243230
    C           -2.317079670770     0.531259278442    -0.182078957396
    C           -1.045275125272     1.035655151996    -0.492300418745
    H           -0.965836706812     2.004974353958    -0.994679997101
    H           -3.190961832883     1.125338395275    -0.453363745894
    O           -3.611259870922    -1.296137766050     0.810438883960
    H           -1.400148226864    -2.407633224110     1.295568081173
    H            0.865538804095    -1.540931518603     0.758826114559
    H            1.371098020927     0.121990505520    -2.517027944025
    H            2.650734644048     1.393068948424    -2.197919429726
    H            2.601520381282    -0.182551823446     1.499571240958
    H            3.771128838682     1.139183972236     1.723016824822
    H            4.653296459508    -0.740604636854     0.199924666036
    H            4.618938459464     0.837301888929    -0.612589794684
    H            2.507175287040    -1.407821482883    -0.876814060793
    H            1.518780176504     2.076636138130     1.268186770252
    H            2.736643972716     2.510681009252    -0.030127749643
    H            3.619004360134    -0.865388271280    -2.154523657626
    C           -4.814081350073    -0.588472901075     0.493624623111
    H           -5.631016747595    -1.223878939551     0.853108307470
    H           -4.848397475719     0.384691207404     1.010008135049
    H           -4.911837562455    -0.441401935720    -0.594354849572


