31

    C           -0.461895740865     1.172444856943     0.626271817994
    C            0.207518315386     0.038101654090     0.050794891276
    C           -0.585952793434    -1.116719673252    -0.286594922454
    C           -1.945821944895    -1.121760168582    -0.072216797162
    C           -2.594586420545     0.028091549073     0.473632032772
    C           -1.830594650652     1.181558542313     0.819456813788
    C            1.587188030766     0.064233060388    -0.176584548844
    C            2.537980879178     1.121367368702     0.295213743876
    C            3.835429151561     0.319443738756     0.521034391347
    C            3.850186480186    -0.616399333545    -0.693476837117
    C            2.366622369419    -1.004271096288    -0.906917152901
    C            1.984426148879    -1.088505589604    -2.399495718806
    H            2.153522197924    -1.976524191335    -0.423167188035
    H            4.495446266410    -1.497111688753    -0.563758565550
    H            4.211366212936    -0.066142426062    -1.579603811039
    H            3.756512689061    -0.255093356811     1.459331989362
    H            4.720340746960     0.967925619638     0.591001732987
    H            2.189645475864     1.705660054155     1.157159923006
    H            2.697289830049     1.819660469161    -0.553244626024
    H            0.113763974937     2.063219766603     0.887995512601
    H           -2.309698877859     2.066390937330     1.239931942376
    O           -3.898177206080    -0.085498151274     0.625316787885
    H           -2.563198415779    -1.993049250097    -0.303327852936
    H           -0.103956035922    -2.012583147720    -0.682936535992
    H            0.943890772538    -1.407983227635    -2.554889604112
    H            2.649313371728    -1.809988420541    -2.899198133998
    H            2.122019885113    -0.107551263285    -2.881774896349
    C           -4.641292505151     1.024564273383     1.181463479214
    H           -5.681465745957     0.684647106249     1.201840086901
    H           -4.293003917527     1.241169925134     2.201826654905
    H           -4.543880653905     1.908680852585     0.534740694509
